@<TRIPOS>MOLECULE
2HYY_chainA_holo_minequi.pdb
70 74 1 0 0
SMALL
AMBER ff14SB


@<TRIPOS>ATOM
      1 C6         37.1340   35.0280   41.0700 C.ar      1 STI   -0.0497
      2 H6         37.8130   35.6000   41.6950 H         1 STI    0.0631
      3 C1         37.6910   34.4020   39.9170 C.ar      1 STI   -0.0431
      4 H1         38.7220   34.5850   39.6290 H         1 STI    0.0639
      5 C2         36.8190   33.6850   39.0570 C.ar      1 STI    0.0268
      6 H2         37.2660   33.2110   38.1840 H         1 STI    0.0840
      7 N3         35.5300   33.5930   39.1920 N.ar      1 STI   -0.2640
      8 C4         35.0120   34.2400   40.3080 C.ar      1 STI    0.0361
      9 H4         33.9340   34.1560   40.4370 H         1 STI    0.0847
     10 C5         35.7270   34.9200   41.2680 C.ar      1 STI    0.0187
     11 C7         35.1210   35.5270   42.4760 C.ar      1 STI    0.0771
     12 N8         33.7980   35.7520   42.4350 N.ar      1 STI   -0.2147
     13 C12        35.8930   35.9760   43.6010 C.ar      1 STI   -0.0171
     14 H12        36.9720   35.8730   43.6640 H         1 STI    0.0662
     15 C11        35.1970   36.7030   44.5540 C.ar      1 STI    0.0328
     16 H11        35.7760   37.2420   45.3030 H         1 STI    0.0842
     17 N10        33.8940   36.8290   44.5830 N.ar      1 STI   -0.2234
     18 C9         33.2410   36.3900   43.4630 C.ar      1 STI    0.2184
     19 N13        31.8760   36.5850   43.3190 N.pl3     1 STI   -0.2833
     20 H13        31.6320   37.0220   42.4400 H         1 STI    0.1559
     21 C14        30.8580   36.3940   44.2550 C.ar      1 STI    0.0374
     22 C15        29.9200   37.4450   44.4460 C.ar      1 STI   -0.0189
     23 H15        30.0740   38.3750   43.9080 H         1 STI    0.0663
     24 C19        30.7160   35.2470   45.0660 C.ar      1 STI   -0.0295
     25 C20        31.7160   34.0920   44.9880 C.3       1 STI   -0.0379
     26 H201       31.6810   33.7570   43.9440 H         1 STI    0.0280
     27 H202       31.3480   33.2330   45.5630 H         1 STI    0.0280
     28 H203       32.7350   34.3260   45.3220 H         1 STI    0.0280
     29 C18        29.6220   35.0840   45.9750 C.ar      1 STI   -0.0556
     30 H18        29.5720   34.1860   46.5840 H         1 STI    0.0627
     31 C17        28.6460   36.1300   46.1080 C.ar      1 STI   -0.0403
     32 H17        27.9630   36.0250   46.9460 H         1 STI    0.0643
     33 C16        28.8900   37.3430   45.3920 C.ar      1 STI    0.0346
     34 N21        28.0730   38.4500   45.7330 N.am      1 STI   -0.2813
     35 H21        27.9010   38.4880   46.7310 H         1 STI    0.1560
     36 C22        27.5900   39.4660   44.9510 C.2       1 STI    0.2472
     37 O29        27.8230   39.5070   43.7700 O.2       1 STI   -0.2716
     38 C23        26.8010   40.4940   45.7180 C.ar      1 STI    0.0374
     39 C29        27.0630   40.7550   47.1090 C.ar      1 STI   -0.0492
     40 C28        26.3690   41.7040   47.8880 C.ar      1 STI   -0.0530
     41 H28        26.5660   41.7150   48.9560 H         1 STI    0.0628
     42 H29        27.8150   40.2230   47.6850 H         1 STI    0.0631
     43 C25        25.8320   41.2580   45.1040 C.ar      1 STI   -0.0492
     44 H25        25.6950   41.2120   44.0280 H         1 STI    0.0631
     45 C26        25.1660   42.2770   45.8500 C.ar      1 STI   -0.0530
     46 H26        24.3330   42.7420   45.3290 H         1 STI    0.0628
     47 C27        25.3600   42.5020   47.2620 C.ar      1 STI   -0.0043
     48 C46        24.4270   43.4660   47.9260 C.3       1 STI   -0.0079
     49 H462       23.6110   42.8600   48.3210 H         1 STI    0.0869
     50 H463       24.0610   44.1930   47.1990 H         1 STI    0.0869
     51 N48        25.0340   44.2810   49.0080 N.4       1 STI    0.2575
     52 H48        25.6750   43.6960   49.5630 H         1 STI    0.2010
     53 C49        23.9200   44.7790   49.8930 C.3       1 STI    0.0064
     54 H492       23.1890   45.3510   49.3200 H         1 STI    0.0870
     55 H493       23.3540   43.9130   50.2400 H         1 STI    0.0870
     56 C50        24.2860   45.6520   51.0860 C.3       1 STI    0.0057
     57 H502       24.7360   45.0970   51.9090 H         1 STI    0.0870
     58 H503       23.3690   46.0290   51.5420 H         1 STI    0.0870
     59 N51        25.2660   46.7950   50.8470 N.4       1 STI    0.2521
     60 C54        25.7410   47.4150   52.1480 C.3       1 STI   -0.0451
     61 H541       24.9460   47.9830   52.6330 H         1 STI    0.0777
     62 H542       26.1420   46.6510   52.8160 H         1 STI    0.0777
     63 H543       26.5690   48.0380   51.8080 H         1 STI    0.0777
     64 H51        24.7650   47.5140   50.3040 H         1 STI    0.2003
     65 C52        26.3500   46.3060   49.8860 C.3       1 STI    0.0057
     66 H522       27.0740   45.7880   50.5170 H         1 STI    0.0870
     67 H523       26.9020   47.1770   49.5310 H         1 STI    0.0870
     68 C53        25.8640   45.4590   48.6200 C.3       1 STI    0.0064
     69 H532       26.7270   45.0980   48.0590 H         1 STI    0.0870
     70 H533       25.2800   46.1660   48.0280 H         1 STI    0.0870
@<TRIPOS>BOND
     1    1    2 1
     2    1    3 ar
     3    1   10 ar
     4    3    4 1
     5    3    5 ar
     6    5    6 1
     7    5    7 ar
     8    7    8 ar
     9    8    9 1
    10    8   10 ar
    11   10   11 1
    12   11   12 ar
    13   11   13 ar
    14   12   18 ar
    15   13   14 1
    16   13   15 ar
    17   15   16 1
    18   15   17 ar
    19   17   18 ar
    20   18   19 1
    21   19   20 1
    22   19   21 1
    23   21   22 ar
    24   21   24 ar
    25   22   23 1
    26   22   33 ar
    27   24   25 1
    28   24   29 ar
    29   25   26 1
    30   25   27 1
    31   25   28 1
    32   29   30 1
    33   29   31 ar
    34   31   32 1
    35   31   33 ar
    36   33   34 1
    37   34   35 1
    38   34   36 am
    39   36   37 2
    40   36   38 1
    41   38   39 ar
    42   38   43 ar
    43   39   42 1
    44   39   40 ar
    45   40   41 1
    46   40   47 ar
    47   43   44 1
    48   43   45 ar
    49   45   46 1
    50   45   47 ar
    51   47   48 1
    52   48   49 1
    53   48   50 1
    54   48   51 1
    55   51   52 1
    56   51   53 1
    57   51   68 1
    58   53   54 1
    59   53   55 1
    60   53   56 1
    61   56   57 1
    62   56   58 1
    63   56   59 1
    64   59   64 1
    65   59   60 1
    66   59   65 1
    67   60   61 1
    68   60   62 1
    69   60   63 1
    70   65   66 1
    71   65   67 1
    72   65   68 1
    73   68   69 1
    74   68   70 1
@<TRIPOS>SUBSTRUCTURE
     1 STI     1 RESIDUE           4 1     STI     0 ROOT
