@<TRIPOS>MOLECULE
2GQG_raw_wt_holo.pdb
60 63 1 0 0
SMALL
AMBER ff14SB


@<TRIPOS>ATOM
      1 C1         46.6110   82.6200   38.8410 C.ar      1 1N1    0.0490
      2 C2         46.7750   82.0670   40.0440 C.ar      1 1N1    0.0963
      3 C3         47.6870   82.4940   41.1480 C.2       1 1N1    0.2557
      4 N6         39.1540   74.8480   36.4620 N.4       1 1N1    0.2506
      5 C7         51.3280   84.7110   43.8460 C.ar      1 1N1   -0.0604
      6 C8         51.6490   83.9220   42.7330 C.ar      1 1N1   -0.0574
      7 C9         50.6600   83.5350   41.8220 C.ar      1 1N1   -0.0281
      8 C10        51.0540   82.7460   40.6060 C.3       1 1N1   -0.0379
      9 C11        43.3450   79.0450   38.8240 C.ar      1 1N1    0.1287
     10 C12        42.2600   78.4660   38.1410 C.ar      1 1N1    0.0191
     11 C13        41.6410   77.3640   38.7640 C.ar      1 1N1    0.1259
     12 C14        43.1380   77.5250   40.5610 C.ar      1 1N1    0.1292
     13 C15        43.6000   77.0970   41.9190 C.3       1 1N1   -0.0041
     14 C16        39.8200   75.5660   38.8090 C.3       1 1N1    0.0522
     15 C19        39.9050   77.1490   36.8840 C.3       1 1N1    0.0522
     16 C20        39.2210   73.7370   35.5030 C.3       1 1N1   -0.0105
     17 C21        38.3550   73.8890   34.2270 C.3       1 1N1    0.0820
     18 N          43.9770   80.1180   38.2570 N.pl3     1 1N1   -0.2783
     19 C          45.0120   80.8680   38.7420 C.ar      1 1N1    0.1629
     20 N1         45.5400   81.9390   38.1020 N.ar      1 1N1   -0.2331
     21 S          45.8120   80.6770   40.2960 S.2       1 1N1   -0.0470
     22 N2         48.3930   83.6260   41.1040 N.am      1 1N1   -0.2792
     23 C4         49.3330   83.9150   42.0370 C.ar      1 1N1    0.0545
     24 C5         49.0210   84.6530   43.2010 C.ar      1 1N1    0.0622
     25 C6         50.0050   85.0710   44.1070 C.ar      1 1N1   -0.0416
     26 CL         47.3940   85.0560   43.5890 Cl        1 1N1   -0.0823
     27 O          47.7260   81.7050   42.0920 O.2       1 1N1   -0.2709
     28 N3         42.0970   76.9050   39.9750 N.ar      1 1N1   -0.2183
     29 N4         43.7640   78.5580   40.0120 N.ar      1 1N1   -0.2181
     30 N5         40.4900   76.7170   38.1650 N.pl3     1 1N1   -0.3052
     31 C17        39.6220   74.4100   37.7990 C.3       1 1N1   -0.0181
     32 C18        39.9110   75.9790   35.8960 C.3       1 1N1   -0.0181
     33 O1         37.4960   75.0150   34.2610 O.3       1 1N1   -0.3909
     34 H1         47.1858   83.4526   38.4632 H         1 1N1    0.0855
     35 HN6        38.1878   75.1299   36.5463 H         1 1N1    0.2004
     36 H7         52.1129   85.0440   44.5089 H         1 1N1    0.0623
     37 H8         52.6709   83.6093   42.5768 H         1 1N1    0.0626
     38 H12        41.9193   78.8461   37.1892 H         1 1N1    0.0697
     39 H162       40.4330   75.2143   39.6388 H         1 1N1    0.0525
     40 H163       38.8483   75.8820   39.1886 H         1 1N1    0.0525
     41 H192       40.4927   77.9713   36.4759 H         1 1N1    0.0525
     42 H193       38.8798   77.4814   37.0468 H         1 1N1    0.0525
     43 H202       38.8997   72.8318   36.0183 H         1 1N1    0.0839
     44 H203       40.2599   73.6083   35.1992 H         1 1N1    0.0839
     45 H212       37.7451   72.9926   34.1146 H         1 1N1    0.0620
     46 H213       39.0142   73.9760   33.3633 H         1 1N1    0.0620
     47 H          43.6291   80.3957   37.3504 H         1 1N1    0.1564
     48 H2         48.2225   84.2838   40.3567 H         1 1N1    0.1561
     49 H6         49.7478   85.6532   44.9795 H         1 1N1    0.0639
     50 H172       38.8859   73.7190   38.2098 H         1 1N1    0.0831
     51 H173       40.5687   73.8826   37.6820 H         1 1N1    0.0831
     52 H182       40.9389   75.6690   35.7077 H         1 1N1    0.0831
     53 H183       39.4492   76.2924   34.9597 H         1 1N1    0.0831
     54 HO1        36.6938   74.8210   33.7707 H         1 1N1    0.2103
     55 H151       43.0079   76.2450   42.2530 H         1 1N1    0.0312
     56 H152       44.6512   76.8125   41.8719 H         1 1N1    0.0312
     57 H153       43.4779   77.9219   42.6210 H         1 1N1    0.0312
     58 H101       52.1216   82.5295   40.6430 H         1 1N1    0.0280
     59 H102       50.8318   83.3251   39.7097 H         1 1N1    0.0280
     60 H103       50.4942   81.8110   40.5825 H         1 1N1    0.0280
@<TRIPOS>BOND
     1   19   18 1
     2   19   20 ar
     3   19   21 ar
     4    1    2 ar
     5    1   20 ar
     6    8    7 1
     7    9   10 ar
     8    9   18 1
     9    9   29 ar
    10   10   11 ar
    11   11   28 ar
    12   11   30 1
    13   12   13 1
    14   12   28 ar
    15   12   29 ar
    16   14   30 1
    17   14   31 1
    18   31    4 1
    19   32    4 1
    20   32   15 1
    21   15   30 1
    22    2    3 1
    23    2   21 ar
    24   16    4 1
    25   16   17 1
    26   17   33 1
    27    3   22 am
    28    3   27 2
    29   23    7 ar
    30   23   22 1
    31   23   24 ar
    32   24   25 ar
    33   24   26 1
    34   25    5 ar
    35    5    6 ar
    36    6    7 ar
    37   34    1 1
    38   35    4 1
    39   36    5 1
    40   37    6 1
    41   38   10 1
    42   39   14 1
    43   40   14 1
    44   41   15 1
    45   42   15 1
    46   43   16 1
    47   44   16 1
    48   45   17 1
    49   46   17 1
    50   47   18 1
    51   48   22 1
    52   49   25 1
    53   50   31 1
    54   51   31 1
    55   52   32 1
    56   53   32 1
    57   54   33 1
    58   55   13 1
    59   56   13 1
    60   57   13 1
    61   58    8 1
    62   59    8 1
    63   60    8 1
@<TRIPOS>SUBSTRUCTURE
     1 1N1     1 RESIDUE           4 A     1N1     0 ROOT
