@<TRIPOS>MOLECULE
2GQG_chainA_holo_minequi.pdb
60 63 1 0 0
SMALL
AMBER ff14SB


@<TRIPOS>ATOM
      1 O1         21.8220   34.1710   36.8350 O.3       1 1N1   -0.3909
      2 HO1        21.6180   33.8950   35.9250 H         1 1N1    0.2103
      3 C21        23.1040   34.7020   36.8310 C.3       1 1N1    0.0820
      4 H212       23.8460   34.1190   36.2730 H         1 1N1    0.0620
      5 H213       22.9740   35.6940   36.3810 H         1 1N1    0.0620
      6 C20        23.5470   34.9330   38.3320 C.3       1 1N1   -0.0105
      7 H202       23.4220   33.9790   38.8480 H         1 1N1    0.0839
      8 H203       24.6180   35.1400   38.3650 H         1 1N1    0.0839
      9 N6         22.7540   36.0810   38.9960 N.4       1 1N1    0.2506
     10 C18        23.2820   37.4430   38.5380 C.3       1 1N1   -0.0181
     11 C19        22.8860   38.6650   39.4590 C.3       1 1N1    0.0522
     12 H192       23.3770   39.5860   39.1230 H         1 1N1    0.0525
     13 H193       21.8250   38.9300   39.3760 H         1 1N1    0.0525
     14 H182       24.3610   37.3580   38.6790 H         1 1N1    0.0831
     15 H183       22.9710   37.6030   37.5050 H         1 1N1    0.0831
     16 HN6        21.7430   36.0270   38.8030 H         1 1N1    0.2004
     17 C17        22.9200   35.9630   40.4630 C.3       1 1N1   -0.0181
     18 H172       22.3360   35.0730   40.7010 H         1 1N1    0.0831
     19 H173       23.9810   35.7310   40.5640 H         1 1N1    0.0831
     20 C16        22.5000   37.1480   41.3390 C.3       1 1N1    0.0522
     21 H162       22.6400   36.8660   42.3900 H         1 1N1    0.0525
     22 H163       21.4170   37.3140   41.2810 H         1 1N1    0.0525
     23 N5         23.2640   38.3430   40.8060 N.pl3     1 1N1   -0.3052
     24 C13        24.3960   38.8860   41.4660 C.ar      1 1N1    0.1259
     25 N3         24.8620   38.1220   42.4470 N.ar      1 1N1   -0.2183
     26 C14        26.0410   38.4740   43.0090 C.ar      1 1N1    0.1292
     27 C15        26.5440   37.5690   44.1290 C.3       1 1N1   -0.0041
     28 H151       27.3470   36.8950   43.8080 H         1 1N1    0.0312
     29 H152       26.9180   38.2280   44.9230 H         1 1N1    0.0312
     30 H153       25.7110   37.0320   44.5990 H         1 1N1    0.0312
     31 N4         26.6690   39.6410   42.7810 N.ar      1 1N1   -0.2181
     32 C12        24.9300   40.1530   41.2250 C.ar      1 1N1    0.0191
     33 H12        24.5630   40.7920   40.4270 H         1 1N1    0.0697
     34 C11        26.1350   40.4510   41.8480 C.ar      1 1N1    0.1287
     35 N          26.8600   41.5980   41.5160 N.pl3     1 1N1   -0.2783
     36 H          26.5500   42.0280   40.6530 H         1 1N1    0.1564
     37 C          27.7420   42.3290   42.2820 C.ar      1 1N1    0.1629
     38 S          28.5110   41.8400   43.7830 S.2       1 1N1   -0.0470
     39 N1         28.1500   43.4890   41.8540 N.ar      1 1N1   -0.2331
     40 C1         29.0330   43.9950   42.6100 C.ar      1 1N1    0.0490
     41 H1         29.5680   44.8690   42.2640 H         1 1N1    0.0855
     42 C2         29.4050   43.3240   43.7510 C.ar      1 1N1    0.0963
     43 C3         30.5060   43.7100   44.6520 C.2       1 1N1    0.2557
     44 O          30.9030   42.9960   45.5640 O.2       1 1N1   -0.2709
     45 N2         31.0670   45.0010   44.4380 N.am      1 1N1   -0.2792
     46 H2         30.5810   45.6560   43.8370 H         1 1N1    0.1561
     47 C4         31.9610   45.6670   45.3490 C.ar      1 1N1    0.0545
     48 C9         33.3320   45.2940   45.3740 C.ar      1 1N1   -0.0281
     49 C10        33.9080   44.3500   44.3860 C.3       1 1N1   -0.0379
     50 H101       34.9980   44.4160   44.2930 H         1 1N1    0.0280
     51 H102       33.3570   44.5500   43.4590 H         1 1N1    0.0280
     52 H103       33.7670   43.3210   44.7380 H         1 1N1    0.0280
     53 C8         34.1130   45.6340   46.4760 C.ar      1 1N1   -0.0574
     54 H8         35.1100   45.2140   46.5650 H         1 1N1    0.0626
     55 C7         33.6610   46.5520   47.4590 C.ar      1 1N1   -0.0604
     56 H7         34.2670   46.9410   48.2720 H         1 1N1    0.0623
     57 C6         32.3500   47.0450   47.3820 C.ar      1 1N1   -0.0416
     58 H6         31.9690   47.8080   48.0550 H         1 1N1    0.0639
     59 C5         31.5270   46.6070   46.3320 C.ar      1 1N1    0.0622
     60 Cl         29.8570   47.0690   46.3470 Cl        1 1N1   -0.0823
@<TRIPOS>BOND
     1    1    2 1
     2    1    3 1
     3    3    4 1
     4    3    5 1
     5    3    6 1
     6    6    7 1
     7    6    8 1
     8    6    9 1
     9    9   16 1
    10    9   10 1
    11    9   17 1
    12   10   14 1
    13   10   15 1
    14   10   11 1
    15   11   12 1
    16   11   13 1
    17   11   23 1
    18   17   18 1
    19   17   19 1
    20   17   20 1
    21   20   21 1
    22   20   22 1
    23   20   23 1
    24   23   24 1
    25   24   25 ar
    26   24   32 ar
    27   25   26 ar
    28   26   27 1
    29   26   31 ar
    30   27   28 1
    31   27   29 1
    32   27   30 1
    33   31   34 ar
    34   32   33 1
    35   32   34 ar
    36   34   35 1
    37   35   36 1
    38   35   37 1
    39   37   38 ar
    40   37   39 ar
    41   38   42 ar
    42   39   40 ar
    43   40   41 1
    44   40   42 ar
    45   42   43 1
    46   43   44 2
    47   43   45 am
    48   45   46 1
    49   45   47 1
    50   47   48 ar
    51   47   59 ar
    52   48   49 1
    53   48   53 ar
    54   49   50 1
    55   49   51 1
    56   49   52 1
    57   53   54 1
    58   53   55 ar
    59   55   56 1
    60   55   57 ar
    61   57   58 1
    62   57   59 ar
    63   59   60 1
@<TRIPOS>SUBSTRUCTURE
     1 1N1     1 RESIDUE           4 1     1N1     0 ROOT
